Version 4
SHEET 1 3136 1616
WIRE 496 -176 256 -176
WIRE 608 -176 496 -176
WIRE 1072 -176 960 -176
WIRE 496 -160 496 -176
WIRE 960 -160 960 -176
WIRE 256 -144 256 -176
WIRE 496 -80 496 -96
WIRE 960 -80 960 -96
WIRE 256 -48 256 -64
WIRE 608 -48 608 -176
WIRE 1072 -48 1072 -176
WIRE 608 80 608 32
WIRE 608 80 512 80
WIRE 736 80 704 80
WIRE 816 80 800 80
WIRE 1072 80 1072 32
WIRE 1072 80 976 80
WIRE 1344 80 1168 80
WIRE 512 96 512 80
WIRE 976 96 976 80
WIRE 608 128 608 80
WIRE 704 128 704 80
WIRE 1072 128 1072 80
WIRE 1168 128 1168 80
WIRE 816 160 816 80
WIRE 512 176 512 160
WIRE 976 176 976 160
WIRE 704 240 704 208
WIRE 1168 240 1168 208
WIRE 608 272 608 208
WIRE 1072 272 1072 208
WIRE 608 288 608 272
WIRE 1072 288 1072 272
WIRE 816 320 816 240
WIRE 1344 352 1344 80
WIRE 1520 352 1344 352
WIRE 1600 352 1584 352
WIRE 1664 352 1600 352
WIRE 16 368 0 368
WIRE 272 368 16 368
WIRE 528 368 336 368
WIRE 560 368 528 368
WIRE 816 368 816 320
WIRE 848 368 816 368
WIRE 960 368 912 368
WIRE 992 368 960 368
WIRE 1024 368 992 368
WIRE 0 384 0 368
WIRE 1600 384 1600 352
WIRE 336 400 336 368
WIRE 816 400 816 368
WIRE 960 400 960 368
WIRE 608 416 608 384
WIRE 1072 416 1072 384
WIRE 0 480 0 464
WIRE 1600 496 1600 464
WIRE 816 512 816 480
WIRE 336 624 336 480
WIRE 400 624 336 624
WIRE 512 624 480 624
WIRE 576 624 512 624
WIRE 624 624 576 624
WIRE 832 624 624 624
WIRE 960 624 960 480
WIRE 960 624 912 624
WIRE 336 656 336 624
WIRE 624 656 624 624
WIRE 960 656 960 624
WIRE 512 672 512 624
WIRE 336 736 336 720
WIRE 960 736 960 720
WIRE 512 752 512 736
WIRE 624 752 624 736
FLAG 256 -48 0
FLAG 1600 496 0
FLAG 1664 352 Vout
FLAG 0 480 0
FLAG 16 368 Vin
FLAG 608 416 0
FLAG 528 368 Vg1
FLAG 608 272 Vd1
FLAG 512 176 0
FLAG 512 752 0
FLAG 336 736 0
FLAG 624 752 0
FLAG 576 624 Vbias
FLAG 496 -80 0
FLAG 704 240 0
FLAG 1072 416 0
FLAG 992 368 Vg2
FLAG 1072 272 Vd2
FLAG 976 176 0
FLAG 960 -80 0
FLAG 1168 240 0
FLAG 960 736 0
FLAG 816 512 0
FLAG 816 320 Vs1
SYMBOL voltage 256 -160 R0
WINDOW 123 0 0 Left 2
WINDOW 39 0 0 Left 2
SYMATTR InstName V2
SYMATTR Value 12
SYMBOL res 1584 368 R0
SYMATTR InstName Rout
SYMATTR Value 25
SYMBOL voltage 0 368 R0
WINDOW 123 24 124 Left 2
WINDOW 39 24 152 Left 2
SYMATTR Value2 AC 1
SYMATTR SpiceLine Rser={Z}
SYMATTR InstName V5
SYMATTR Value SINE(0 {S} {F})
SYMBOL nmos 560 288 R0
SYMATTR InstName M1
SYMATTR Value 2N7000
SYMBOL ind2 592 112 R0
SYMATTR InstName L1
SYMATTR Value 60µ
SYMATTR Type ind
SYMBOL res 320 384 R0
SYMATTR InstName R3
SYMATTR Value 4.7K
SYMBOL ind2 592 -64 R0
SYMATTR InstName RFC1
SYMATTR Value 10µ
SYMATTR Type ind
SYMBOL cap 496 96 R0
SYMATTR InstName C6
SYMATTR Value .1µ
SYMBOL cap 1520 368 R270
WINDOW 0 32 32 VTop 2
WINDOW 3 0 32 VBottom 2
SYMATTR InstName C4
SYMATTR Value .1µ
SYMBOL ind2 384 640 R270
WINDOW 0 32 56 VTop 2
WINDOW 3 4 56 VBottom 2
SYMATTR InstName RFC2
SYMATTR Value 10µ
SYMATTR Type ind
SYMBOL cap 496 672 R0
SYMATTR InstName C10
SYMATTR Value .1µ
SYMBOL cap 320 656 R0
SYMATTR InstName C11
SYMATTR Value .1µ
SYMBOL voltage 624 640 R0
WINDOW 123 0 0 Left 2
WINDOW 39 0 0 Left 2
SYMATTR InstName V1
SYMATTR Value {BM2}
SYMBOL ind2 688 112 R0
SYMATTR InstName L2
SYMATTR Value 10µ
SYMATTR Type ind
SYMBOL cap 480 -160 R0
SYMATTR InstName C13
SYMATTR Value .1µ
SYMBOL cap 272 384 R270
WINDOW 0 32 32 VTop 2
WINDOW 3 0 32 VBottom 2
SYMATTR InstName C14
SYMATTR Value .1µ
SYMBOL nmos 1024 288 R0
SYMATTR InstName M2
SYMATTR Value 2N7000
SYMBOL ind2 1056 112 R0
SYMATTR InstName L3
SYMATTR Value 60µ
SYMATTR Type ind
SYMBOL ind2 1056 -64 R0
SYMATTR InstName RFC3
SYMATTR Value 10µ
SYMATTR Type ind
SYMBOL cap 960 96 R0
SYMATTR InstName C1
SYMATTR Value .1µ
SYMBOL ind2 1152 112 R0
SYMATTR InstName L4
SYMATTR Value 10µ
SYMATTR Type ind
SYMBOL cap 944 -160 R0
SYMATTR InstName C2
SYMATTR Value .1µ
SYMBOL res 800 144 R0
SYMATTR InstName RSense1
SYMATTR Value .001
SYMBOL cap 912 352 R90
WINDOW 0 0 32 VBottom 2
WINDOW 3 32 32 VTop 2
SYMATTR InstName C3
SYMATTR Value .1µ
SYMBOL res 944 384 R0
SYMATTR InstName R2
SYMATTR Value 4.7K
SYMBOL ind2 816 640 R270
WINDOW 0 32 56 VTop 2
WINDOW 3 4 56 VBottom 2
SYMATTR InstName RFC4
SYMATTR Value 10µ
SYMATTR Type ind
SYMBOL cap 944 656 R0
SYMATTR InstName C5
SYMATTR Value .1µ
SYMBOL cap 736 96 R270
WINDOW 0 32 32 VTop 2
WINDOW 3 0 32 VBottom 2
SYMATTR InstName C7
SYMATTR Value .1µ
SYMBOL res 800 384 R0
SYMATTR InstName R1
SYMATTR Value 200R
TEXT 200 248 Left 2 !.tran 0 20u 19u
TEXT 2456 -232 Left 2 !.options plotwinsize=0\n.options numdgt = 8\n \n.meas TRAN Vinr RMS V(Vin)\n.meas TRAN Voutr RMS V(Vout)\n.meas TRAN Iinr RMS I(V5)\n.meas TRAN Ioutr RMS I(Rout)\n;;;;;;;;;;;;;;;;;;;;;;;;;;;\n.meas TRAN Vgr1 RMS V(Vg1)\n.meas TRAN Vdr1 RMS V(Vd1)\n.meas TRAN Idr1 RMS Id(M1)\n.meas TRAN Igr1 RMS Ig(M1)\n.meas TRAN Vgavg1 AVG V(Vg1)\n.meas TRAN Vgmax1 MAX V(Vg1)\n.meas TRAN Vgmin1 MIN V(Vg1)\n.meas TRAN Vbiasr RMS V(Vbias)\n.meas TRAN Vppr1 PARAM Vgmax1-Vgmin1\n.meas TRAN Vpr1 PARAM Vgmax1-Vgs2\n.meas TRAN Cd1 PARAM Vpr1/Vppr1\n;;;;;;;;;;;;;;;;;;;;;;;;;;;\n.meas TRAN Vgr2 RMS V(Vg2)\n.meas TRAN Vdr2 RMS V(Vd2)\n.meas TRAN Idr2 RMS Id(M2)\n.meas TRAN Igr2 RMS Ig(M2)\n.meas TRAN Vgavg2 AVG V(Vg2)\n.meas TRAN Vgmax2 MAX V(Vg2)\n.meas TRAN Vgmin2 MIN V(Vg2)\n.meas TRAN Vbiasr2 RMS V(Vbias2)\n.meas TRAN Vppr2 PARAM Vgmax2-Vgmin2\n.meas TRAN Vpr2 PARAM Vgmax2-Vgs2\n.meas TRAN Cd2 PARAM Vpr2/Vppr2\n;;;;;;;;;;;;;;;;;;;;;;;;;;;\n.meas TRAN Pdis1 AVG (V(vd1)*Id(m1) + V(vg1)*Ig(m1))\n.meas TRAN Pdis2 AVG (V(vd2)*Id(m2) + V(vg2)*Ig(m2))\n;;;;;;;;;;;;;;;;;;;;;;;;;;;\n.meas TRAN Vsr1 RMS V(Vs1)\n.meas TRAN Is1 RMS I(Rsense1)\n.meas TRAN Zin PARAM Vinr/Iinr\n.meas TRAN Zin2 PARAM Vsr1/Is1\n.meas TRAN Zout1 PARAM Vdr1/Idr1\n.meas TRAN Zout2 PARAM Vdr2/Idr2\n.meas TRAN CdAngle1 PARAM Cd1*360\n.meas TRAN CdAngle2 PARAM Cd2*360\n.meas TRAN Pin PARAM Zin*Iinr*Iinr\n.meas TRAN Pout AVG (V(Vout)*I(Rout))\n.meas TRAN Pdis PARAM Pdis1+Pdis2\n.meas TRAN Pmar PARAM Pout-Pdis\n ;;;;;;;;;;;;;;;;;;;;;;;;;;;\n.meas TRAN Gp PARAM 10*log10(Pout/Pin)\n.meas TRAN Gv PARAM 20*log10(Voutr/Vinr)\n.meas TRAN Gi PARAM 20*log10(Ioutr/Iinr)\n.meas TRAN Beta1 PARAM Idr1/Igr1\n.meas TRAN Beta2 PARAM Idr2/Igr2\n \n.four {F} 4 -1 V(Vout)
TEXT -392 -408 Left 2 !;.step param F list 1.5Meg 3.7Meg 5.37Meg 7.1Meg 10.1Meg 14.1Meg 21.1Meg 28.7Meg\n;.step param F list  3.7Meg 14.1Meg 28.7Meg\n.param F 30Meg\n.param S 1\n.param BM2 2.3\n;.step param BM2 2.2 4 .2\n;.step param R 50 500 50\n.param Z 1\n.param Vgs1 3.6\n.param Vgs2 2.1
TEXT 656 280 Left 2 !K1 L1 L2 1
TEXT 1096 288 Left 2 !K2 L3 L4 1
