Version 4
SHEET 1 2100 1496
WIRE 32 -320 -48 -320
WIRE 112 -320 32 -320
WIRE 192 -320 112 -320
WIRE 272 -320 192 -320
WIRE 368 -320 352 -320
WIRE 416 -320 368 -320
WIRE 448 -320 416 -320
WIRE 32 -288 32 -320
WIRE 192 -288 192 -320
WIRE 368 -288 368 -320
WIRE 448 -288 448 -320
WIRE -48 -272 -48 -320
WIRE 32 -208 32 -224
WIRE 192 -208 192 -224
WIRE 368 -208 368 -224
WIRE 448 -208 448 -224
WIRE -48 -176 -48 -192
WIRE 416 -112 416 -320
WIRE 416 32 416 -32
WIRE 464 32 416 32
WIRE 592 32 592 -16
WIRE 592 32 528 32
WIRE 704 32 592 32
WIRE 112 48 112 -320
WIRE 704 48 704 32
WIRE 416 112 416 32
WIRE 416 144 416 112
WIRE 704 144 704 128
WIRE -64 192 -112 192
WIRE -16 192 -64 192
WIRE 112 192 112 128
WIRE 112 192 48 192
WIRE 288 192 112 192
WIRE 352 192 288 192
WIRE -112 224 -112 192
WIRE 112 240 112 192
WIRE 416 256 416 240
WIRE 416 272 416 256
WIRE 432 272 416 272
WIRE 512 272 496 272
WIRE 416 304 416 272
WIRE 512 304 512 272
WIRE -112 320 -112 304
WIRE 112 336 112 320
WIRE 416 416 416 384
WIRE 512 416 512 384
WIRE 512 416 416 416
WIRE 416 512 416 416
FLAG 192 -208 0
FLAG 32 -208 0
FLAG -48 -176 0
FLAG -112 320 0
FLAG 416 512 0
FLAG 592 -16 Vout
FLAG 704 144 0
FLAG 368 -208 0
FLAG 448 -208 0
FLAG 288 192 Vb
FLAG 416 256 Ve
FLAG -64 192 Vin
FLAG 416 112 Vc
FLAG 112 336 0
FLAG -48 224 0
SYMBOL npn 352 144 R0
SYMATTR InstName Q1
SYMATTR Value 2SC5706
SYMBOL voltage -112 208 R0
WINDOW 0 -45 11 Left 2
WINDOW 3 -214 95 Left 2
WINDOW 123 -214 123 Left 2
WINDOW 39 -214 151 Left 2
SYMATTR InstName V1
SYMATTR Value SINE(0 {S} {F})
SYMATTR Value2 AC 1
SYMATTR SpiceLine Rser={Z}
SYMBOL voltage -48 -288 R0
WINDOW 123 0 0 Left 0
WINDOW 39 0 0 Left 0
SYMATTR InstName V2
SYMATTR Value 12
SYMBOL res 96 32 R0
SYMATTR InstName R1
SYMATTR Value 1500
SYMBOL cap 176 -288 R0
SYMATTR InstName C1
SYMATTR Value 1µ
SYMBOL cap 16 -288 R0
SYMATTR InstName C2
SYMATTR Value .1µ
SYMBOL cap 528 16 R90
WINDOW 0 4 36 VBottom 2
WINDOW 3 32 36 VTop 2
SYMATTR InstName C3
SYMATTR Value .1µ
SYMBOL res 688 32 R0
SYMATTR InstName Rout
SYMATTR Value {R}
SYMBOL ind 256 -304 R270
WINDOW 0 32 56 VTop 2
WINDOW 3 5 56 VBottom 2
SYMATTR InstName L3
SYMATTR Value 1µ
SYMBOL cap 352 -288 R0
SYMATTR InstName C4
SYMATTR Value 220µ
SYMBOL cap 432 -288 R0
SYMATTR InstName C5
SYMATTR Value .1µ
SYMBOL cap 48 176 R90
WINDOW 0 0 32 VBottom 2
WINDOW 3 32 32 VTop 2
SYMATTR InstName C7
SYMATTR Value .1µ
SYMBOL res 400 288 R0
SYMATTR InstName R3
SYMATTR Value 15.4
SYMBOL res 96 224 R0
SYMATTR InstName R2
SYMATTR Value 1200
SYMBOL cap 496 256 R90
WINDOW 0 0 32 VBottom 2
WINDOW 3 32 32 VTop 2
SYMATTR InstName C8
SYMATTR Value 1µ
SYMBOL res 496 288 R0
SYMATTR InstName R4
SYMATTR Value 5
SYMBOL ind 400 -128 R0
SYMATTR InstName L1
SYMATTR Value 66µ
TEXT -384 64 Left 2 !.tran 0 20u
TEXT 944 -360 Left 2 !.options plotwinsize=0\n.options numdgt = 8\n \n \n \n.meas TRAN Vinr RMS V(Vin)\n.meas TRAN Voutr RMS V(Vout)\n.meas TRAN Iinr RMS I(V1)\n;;;;;;;;;;;;;;;;;;;;;;;;;;;;\n.meas TRAN Vbr RMS V(Vb)\n.meas TRAN Vcr RMS V(Vc)\n.meas TRAN Icr RMS Ic(Q1)\n.meas TRAN Ibr RMS Ib(Q1)\n.meas TRAN Vbavg AVG V(Vb)\n.meas TRAN Vbmax MAX V(Vb)\n.meas TRAN Vbmin MIN V(Vb)\n.meas TRAN Vppr PARAM Vbmax-Vbmin\n.meas TRAN Vpr PARAM Vbmax-Vbe\n.meas TRAN Cd PARAM Vpr/Vppr\n;;;;;;;;;;;;;;;;;;;;;;;;;;;\n.meas TRAN Pdis AVG (V(Vc,Ve)*Ic(Q1) + V(Vb,Ve)*Ib(Q1))\n \n;;;;;;;;;;;;;;;;;;;;;;;;;;;\n.meas TRAN Zin PARAM Vinr/Iinr\n.meas TRAN Zout PARAM Vcr/Icr\n.meas TRAN CdAngle PARAM Cd*360\n.meas TRAN Pin PARAM Zin*Iinr*Iinr\n \n.meas TRAN Pout AVG (V(Vout)*I(Rout))\n.meas TRAN Pmar PARAM Pout-Pdis\n ;;;;;;;;;;;;;;;;;;;;;;;;;;;\n.meas TRAN Gpr PARAM (Pout/Pin)\n.meas TRAN Gvr PARAM (Voutr/Vinr)\n.meas TRAN Gp PARAM 10*log10(Pout/Pin)\n.meas TRAN Gv PARAM 20*log10(Voutr/Vinr)\n \n.four {F} 4 -1 V(Vout)
TEXT -880 -64 Left 2 !;.step param F list 1.5Meg 3.7Meg 5.37Meg 7.1Meg 10.1Meg 14.1Meg 21.1Meg 28.7Meg\n;.step param F list 3.7Meg 14.1Meg 28.7Meg\n.param F 28.7Meg\n.param S 1.2\n.param Z 1\n.step param R 10 100 10\n.param Vbe 0.68
TEXT -392 104 Left 2 ;.ac dec 1000 1Meg 30Meg
