Version 4
SHEET 1 2140 1880
WIRE 32 -32 -16 -32
WIRE 192 -32 112 -32
WIRE 464 -32 192 -32
WIRE 720 -32 464 -32
WIRE -16 0 -16 -32
WIRE 464 32 464 -32
WIRE 720 48 720 -32
WIRE -16 112 -16 80
WIRE 464 192 464 112
WIRE 464 224 464 192
WIRE 48 272 -48 272
WIRE 176 272 112 272
WIRE 384 272 256 272
WIRE 400 272 384 272
WIRE 720 272 720 128
WIRE -48 304 -48 272
WIRE 720 320 720 272
WIRE -48 368 -48 304
WIRE 464 368 464 320
WIRE 480 368 464 368
WIRE 512 368 480 368
WIRE 640 368 592 368
WIRE 656 368 640 368
WIRE 464 384 464 368
WIRE -48 464 -48 448
WIRE 720 464 720 416
WIRE 752 464 720 464
WIRE 944 464 896 464
WIRE 464 480 464 464
WIRE 720 496 720 464
WIRE 944 496 944 464
WIRE 720 512 720 496
WIRE 720 608 720 592
WIRE 944 608 944 576
FLAG 464 480 0
FLAG -16 112 0
FLAG -48 464 0
FLAG -48 304 Vin
FLAG 384 272 Vb2
FLAG 464 192 Vc2
FLAG 480 368 Ve2
FLAG 720 608 0
FLAG 720 496 Ve3
FLAG 944 608 0
FLAG 640 368 Vb3
FLAG 720 272 Vc3
FLAG 944 464 Vout
FLAG 192 32 0
SYMBOL voltage -16 -16 R0
WINDOW 123 0 0 Left 0
WINDOW 39 0 0 Left 0
SYMATTR InstName Vcc
SYMATTR Value 12
SYMBOL res 448 368 R0
SYMATTR InstName R3
SYMATTR Value 2.2K
SYMBOL npn 400 224 R0
SYMATTR InstName Q2
SYMATTR Value 2N3904
SYMBOL npn 656 320 R0
WINDOW 0 56 18 Left 2
WINDOW 3 56 50 Left 2
SYMATTR InstName Q3
SYMATTR Value 2N3904
SYMBOL cap 896 448 R90
WINDOW 0 0 32 VBottom 2
WINDOW 3 32 32 VTop 2
SYMATTR InstName C7
SYMATTR Value .1µ
SYMBOL res 704 496 R0
SYMATTR InstName R6
SYMATTR Value 470
SYMBOL res 928 480 R0
SYMATTR InstName Rload
SYMATTR Value 50R
SYMBOL res 128 -48 R90
WINDOW 0 0 56 VBottom 2
WINDOW 3 32 56 VTop 2
SYMATTR InstName R10
SYMATTR Value 10R
SYMBOL res 272 256 R90
WINDOW 0 0 56 VBottom 2
WINDOW 3 32 56 VTop 2
SYMATTR InstName Rcouple1
SYMATTR Value .001
SYMBOL res 608 352 R90
WINDOW 0 0 56 VBottom 2
WINDOW 3 32 56 VTop 2
SYMATTR InstName Rcouple2
SYMATTR Value .001
SYMBOL res 848 448 R90
WINDOW 0 0 56 VBottom 2
WINDOW 3 32 56 VTop 2
SYMATTR InstName Rcouple3
SYMATTR Value .001
SYMBOL voltage -48 352 R0
WINDOW 0 -45 11 Left 2
WINDOW 3 -214 95 Left 2
WINDOW 123 -214 123 Left 2
WINDOW 39 -214 151 Left 2
SYMATTR InstName Vi
SYMATTR Value SINE(0 {S} {F})
SYMATTR Value2 AC 1
SYMATTR SpiceLine Rser={Z}
SYMBOL res 480 128 R180
WINDOW 0 36 76 Left 2
WINDOW 3 36 40 Left 2
SYMATTR InstName Rsense1
SYMATTR Value .001
SYMBOL res 736 144 R180
WINDOW 0 36 76 Left 2
WINDOW 3 36 40 Left 2
SYMATTR InstName Rsense2
SYMATTR Value .001
SYMBOL cap 176 -32 R0
SYMATTR InstName C1
SYMATTR Value .1µ
SYMBOL cap 112 256 R90
WINDOW 0 0 32 VBottom 2
WINDOW 3 32 32 VTop 2
SYMATTR InstName C2
SYMATTR Value .1µ
TEXT 1032 -680 Left 2 !.options plotwinsize=0\n.options numdgt = 8\n \n \n \n.meas TRAN Vinr RMS V(Vin)\n.meas TRAN Voutr RMS V(Vout)\n.meas TRAN Ioutr RMS I(Rload)\n.meas TRAN Iinr RMS I(Vi)\n;;;;;;;;;;;;;;;;;;;;;;;;;;;;\n \n;;;;;;;;;;;;;;;;;;;;;;;;;;;;\n \n.meas TRAN Vb2r RMS V(Vb2)\n.meas TRAN Vc2r RMS V(Vc2)\n.meas TRAN Ve2r RMS V(Ve2)\n.meas TRAN Ic2r RMS Ic(Q2)\n.meas TRAN Ib2r RMS Ib(Q2)\n.meas TRAN Vb2avg AVG V(Vb2)\n.meas TRAN Vb2max MAX V(Vb2)\n.meas TRAN Vb2min MIN V(Vb2)\n.meas TRAN Vpp2r PARAM Vb2max-Vb2min\n.meas TRAN Vp2r PARAM Vb2max-Vbe\n.meas TRAN Cd2 PARAM Vp2r/Vpp2r\n;;;;;;;;;;;;;;;;;;;;;;;;;;;;\n \n.meas TRAN Vb3r RMS V(Vb3)\n.meas TRAN Vc3r RMS V(Vc3)\n.meas TRAN Ve3r RMS V(Ve3)\n.meas TRAN Ic3r RMS Ic(Q3)\n.meas TRAN Ib3r RMS Ib(Q3)\n.meas TRAN Vb3avg AVG V(Vb3)\n.meas TRAN Vb3max MAX V(Vb3)\n.meas TRAN Vb3min MIN V(Vb3)\n.meas TRAN Vpp3r PARAM Vb3max-Vb3min\n.meas TRAN Vp3r PARAM Vb3max-Vbe\n.meas TRAN Cd3 PARAM Vp3r/Vpp3r\n;;;;;;;;;;;;;;;;;;;;;;;;;;;\n.meas TRAN Icouple1 RMS I(Rcouple1)\n.meas TRAN Icouple2 RMS I(Rcouple2)\n.meas TRAN Icouple3 RMS I(Rcouple3)\n;;;;;;;;;;;;;;;;;;;;;;;;;;;\n \n.meas TRAN PQ2dis AVG (V(Vc2,Ve2)*Ic(Q2) + V(Vb2,Ve2)*Ib(Q2))\n.meas TRAN PQ3dis AVG (V(Vc3,Ve3)*Ic(Q3) + V(Vb3,Ve3)*Ib(Q3))\n;;;;;;;;;;;;;;;;;;;;;;;;;;;\n.meas TRAN Zin PARAM Vinr/Iinr\n.meas TRAN Zout PARAM Voutr/Ioutr \n \n.meas TRAN ZQ2in PARAM Vb2r/Ib2r \n.meas TRAN ZQ2out PARAM Ve2r/Icouple2\n.meas TRAN ZQ3in PARAM Vb3r/Ib3r \n.meas TRAN Zq3out PARAM Ve3r/Icouple3 \n ;;;;;;;;;;;;;;;;;;;;;;;;;;;\n \n.meas TRAN Q2Angle PARAM Cd2*360\n.meas TRAN Q3Angle PARAM Cd3*360\n;;;;;;;;;;;;;;;;;;;;;;;;;;;\n.meas TRAN Pin PARAM Zin*Iinr*Iinr\n.meas TRAN Pout AVG (V(Vout)*I(Rload))\n.meas TRAN Pmar1 PARAM Pout-PQ1dis\n.meas TRAN Pmar2 PARAM Pout-PQ2dis\n.meas TRAN Pmar3 PARAM Pout-PQ3dis\n ;;;;;;;;;;;;;;;;;;;;;;;;;;;\n.meas TRAN Gp PARAM 10*log10(Pout/Pin)\n.meas TRAN Gv PARAM 20*log10(Voutr/Vinr)\n \n.four {F} 4 -1 V(Vout)
TEXT -280 132 Left 2 !.tran 0 10u
TEXT -288 -160 Left 2 !;.step param F list 1.5Meg 3.7Meg 5.37Meg 7.1Meg 10.1Meg 14.1Meg 21.1Meg 28.7Meg\n.step param F list 3.7Meg 14.1Meg 28.7Meg\n;.param F 30Meg\n.param S .1\n.param Z 2\n.param Vbe 0.68
