Version 4
SHEET 1 3060 1616
WIRE 1168 -416 1040 -416
WIRE 1216 -416 1168 -416
WIRE 1264 -416 1216 -416
WIRE 1392 -416 1344 -416
WIRE 1456 -416 1392 -416
WIRE 1520 -416 1456 -416
WIRE 1392 -400 1392 -416
WIRE 1520 -400 1520 -416
WIRE 1040 -384 1040 -416
WIRE 1168 -368 1168 -416
WIRE 1216 -368 1216 -416
WIRE 1392 -320 1392 -336
WIRE 1520 -320 1520 -336
WIRE 1040 -288 1040 -304
WIRE 1168 -288 1168 -304
WIRE 1216 -288 1216 -304
WIRE 1536 -208 1504 -208
WIRE 1456 -176 1456 -416
WIRE 1456 -176 1408 -176
WIRE 1536 -176 1536 -208
WIRE 1408 -144 1408 -176
WIRE 1504 -144 1504 -208
WIRE 1136 -48 1104 -48
WIRE 1248 -48 1216 -48
WIRE 1344 -48 1312 -48
WIRE 1408 -48 1408 -64
WIRE 1408 -48 1344 -48
WIRE 1504 -48 1504 -64
WIRE 1568 -48 1504 -48
WIRE 1920 -48 1632 -48
WIRE 1344 0 1344 -48
WIRE 1344 16 1344 0
WIRE 1920 64 1920 -48
WIRE 1984 64 1920 64
WIRE 608 96 512 96
WIRE 816 96 608 96
WIRE 928 96 880 96
WIRE 1024 96 1008 96
WIRE 1104 96 1104 -48
WIRE 1104 96 1024 96
WIRE 1136 96 1104 96
WIRE 1264 96 1216 96
WIRE 1296 96 1264 96
WIRE 1920 96 1920 64
WIRE 512 112 512 96
WIRE 1024 144 1024 96
WIRE 512 208 512 192
WIRE 1920 208 1920 176
WIRE 1024 240 1024 224
WIRE 1024 240 976 240
WIRE 1136 240 1024 240
WIRE 1024 272 1024 240
WIRE 1136 272 1136 240
WIRE 1344 288 1344 112
WIRE 1024 368 1024 336
WIRE 1136 368 1136 352
FLAG 1040 -288 0
FLAG 1136 368 0
FLAG 1344 288 0
FLAG 1216 -288 0
FLAG 1392 -320 0
FLAG 1520 -320 0
FLAG 1168 -288 0
FLAG 1920 208 0
FLAG 1984 64 Vout
FLAG 1264 96 Vg
FLAG 1344 0 Vd
FLAG 512 208 0
FLAG 1024 368 0
FLAG 608 96 Vin
FLAG 976 240 Vbias
FLAG 1536 -176 0
FLAG 768 128 0
SYMBOL voltage 1040 -400 R0
WINDOW 123 0 0 Left 2
WINDOW 39 0 0 Left 2
SYMATTR InstName V2
SYMATTR Value 12
SYMBOL cap 880 80 R90
WINDOW 0 0 32 VBottom 2
WINDOW 3 32 32 VTop 2
SYMATTR InstName C4
SYMATTR Value .1µ
SYMBOL voltage 1136 256 R0
WINDOW 123 0 0 Left 2
WINDOW 39 0 0 Left 2
SYMATTR InstName V3
SYMATTR Value {B}
SYMBOL res 1008 128 R0
SYMATTR InstName R7
SYMATTR Value 10K
SYMBOL ind 1248 -400 R270
WINDOW 0 32 56 VTop 2
WINDOW 3 5 56 VBottom 2
SYMATTR InstName L5
SYMATTR Value 1µ
SYMBOL cap 1200 -368 R0
SYMATTR InstName C5
SYMATTR Value 470µ
SYMBOL cap 1376 -400 R0
SYMATTR InstName C7
SYMATTR Value .1µ
SYMBOL cap 1568 -32 R270
WINDOW 0 32 32 VTop 2
WINDOW 3 0 32 VBottom 2
SYMATTR InstName C8
SYMATTR Value .1µ
SYMBOL cap 1504 -400 R0
SYMATTR InstName C2
SYMATTR Value 1µ
SYMBOL cap 1152 -368 R0
SYMATTR InstName C12
SYMATTR Value .1µ
SYMBOL res 1904 80 R0
SYMATTR InstName Rout
SYMATTR Value 50
SYMBOL voltage 512 96 R0
WINDOW 123 24 124 Left 2
WINDOW 39 24 152 Left 2
SYMATTR Value2 AC 1
SYMATTR SpiceLine Rser={Z}
SYMATTR InstName V5
SYMATTR Value SINE(0 {S} {F})
SYMBOL nmos 1296 16 R0
SYMATTR InstName M1
SYMATTR Value RD16HHF1
SYMBOL cap 1008 272 R0
SYMATTR InstName C3
SYMATTR Value .1µ
SYMBOL ind2 1488 -160 R0
SYMATTR InstName L1
SYMATTR Value 50µ
SYMATTR Type ind
SYMBOL ind2 1392 -160 R0
SYMATTR InstName L2
SYMATTR Value 6.25µ
SYMATTR Type ind
SYMBOL res 1024 80 R90
WINDOW 0 0 56 VBottom 2
WINDOW 3 32 56 VTop 2
SYMATTR InstName R1
SYMATTR Value 56
SYMBOL cap 1312 -64 R90
WINDOW 0 0 32 VBottom 2
WINDOW 3 32 32 VTop 2
SYMATTR InstName C1
SYMATTR Value .1µ
SYMBOL res 1232 -64 R90
WINDOW 0 0 56 VBottom 2
WINDOW 3 32 56 VTop 2
SYMATTR InstName R2
SYMATTR Value 560
SYMBOL ind 1120 112 R270
WINDOW 0 32 56 VTop 2
WINDOW 3 5 56 VBottom 2
SYMATTR InstName L4
SYMATTR Value 1n
TEXT 848 -72 Left 2 !.tran 0 20u 19u
TEXT 2160 -560 Left 2 !.options plotwinsize=0\n.options numdgt = 8\n \n.meas TRAN Vinr RMS V(Vin)\n.meas TRAN Voutr RMS V(Vout)\n.meas TRAN Iinr RMS I(V5)\n.meas TRAN Ioutr RMS I(Rout)\n;;;;;;;;;;;;;;;;;;;;;;;;;;;;\n.meas TRAN Vgr RMS V(Vg)\n.meas TRAN Vdr RMS V(Vd)\n.meas TRAN Idr RMS Id(M1)\n.meas TRAN Igr RMS Ig(m1)\n.meas TRAN Vgavg AVG V(Vg)\n.meas TRAN Vgmax MAX V(Vg)\n.meas TRAN Vgmin MIN V(Vg)\n.meas TRAN Vbiasr RMS V(Vbias)\n.meas TRAN Vppr PARAM Vgmax-Vgmin\n.meas TRAN Vpr PARAM Vgmax-Vgs\n.meas TRAN Cd PARAM Vpr/Vppr\n;;;;;;;;;;;;;;;;;;;;;;;;;;;\n.meas TRAN Pdis AVG (V(vd)*Id(m1) + V(vg)*Ig(m1))\n;;;;;;;;;;;;;;;;;;;;;;;;;;;\n.meas TRAN Zin PARAM Vinr/Iinr\n.meas TRAN Zout PARAM Vdr/Idr\n.meas TRAN CdAngle PARAM Cd*360\n.meas TRAN Pin PARAM Zin*Iinr*Iinr\n.meas TRAN Pout AVG (V(Vout)*I(Rout))\n.meas TRAN Pmar PARAM Pout-Pdis\n ;;;;;;;;;;;;;;;;;;;;;;;;;;;\n.meas TRAN Gp PARAM 10*log10(Pout/Pin)\n.meas TRAN Gv PARAM 20*log10(Voutr/Vinr)\n.meas TRAN Gi PARAM 20*log10(Ioutr/Iinr)\n.meas TRAN Beta PARAM Idr/Igr\n \n.four {F} 4 -1 V(Vout)
TEXT -152 -448 Left 2 !;.step param F list 1.5Meg 3.7Meg 5.37Meg 7.1Meg 10.1Meg 14.1Meg 21.1Meg 28.7Meg\n;.step param F list  3.7Meg 14.1Meg 28.7Meg\n.param F 28.7Meg\n.param S 7.07\n.param B 4.52\n;.step param B 3.5 5 .25\n.param Z 50\n.param Vgs 3.6
TEXT 1256 -152 Left 2 !K1 L1 L2 1
