Version 4
SHEET 1 3132 708
WIRE -1040 -832 -1376 -832
WIRE -656 -832 -1040 -832
WIRE -320 -832 -656 -832
WIRE -112 -832 -320 -832
WIRE 176 -832 -112 -832
WIRE 320 -832 176 -832
WIRE 640 -832 320 -832
WIRE 1248 -832 640 -832
WIRE -1040 -784 -1040 -832
WIRE -1376 -768 -1376 -832
WIRE -656 -752 -656 -832
WIRE 640 -736 640 -832
WIRE 176 -720 176 -832
WIRE 320 -720 320 -832
WIRE -1040 -688 -1040 -720
WIRE -1376 -672 -1376 -688
WIRE -320 -672 -320 -832
WIRE -112 -672 -112 -832
WIRE -112 -656 -112 -672
WIRE -656 -608 -656 -672
WIRE -1040 -560 -1376 -560
WIRE 320 -544 320 -640
WIRE 448 -544 320 -544
WIRE 640 -544 640 -656
WIRE 640 -544 512 -544
WIRE 704 -544 640 -544
WIRE 848 -544 768 -544
WIRE 976 -544 848 -544
WIRE 1072 -544 976 -544
WIRE 1488 -544 1456 -544
WIRE 1584 -544 1552 -544
WIRE -1376 -512 -1376 -560
WIRE -112 -512 -112 -592
WIRE 320 -512 320 -544
WIRE 1248 -480 1248 -832
WIRE 1328 -480 1248 -480
WIRE -656 -464 -656 -528
WIRE -496 -464 -656 -464
WIRE -320 -464 -320 -592
WIRE -320 -464 -432 -464
WIRE -176 -464 -320 -464
WIRE 176 -464 176 -640
WIRE 176 -464 96 -464
WIRE 256 -464 176 -464
WIRE -656 -448 -656 -464
WIRE 1456 -448 1456 -544
WIRE 1456 -448 1376 -448
WIRE -656 -432 -656 -448
WIRE 1376 -416 1376 -448
WIRE 1584 -416 1584 -544
WIRE 1584 -416 1456 -416
WIRE 640 -400 640 -544
WIRE -1376 -384 -1376 -432
WIRE -112 -384 -112 -416
WIRE 0 -384 -112 -384
WIRE 96 -384 96 -464
WIRE 96 -384 64 -384
WIRE 848 -384 848 -544
WIRE 976 -384 976 -544
WIRE 1456 -384 1456 -416
WIRE -1040 -368 -1040 -560
WIRE -992 -368 -1040 -368
WIRE -848 -368 -928 -368
WIRE -736 -368 -848 -368
WIRE -704 -368 -736 -368
WIRE 320 -368 320 -416
WIRE 480 -368 320 -368
WIRE 1328 -368 1328 -384
WIRE -320 -352 -320 -464
WIRE -112 -336 -112 -384
WIRE 1136 -336 1136 -368
WIRE -848 -320 -848 -368
WIRE -656 -320 -656 -336
WIRE -544 -320 -656 -320
WIRE 176 -320 176 -464
WIRE 320 -320 320 -368
WIRE 1680 -320 1536 -320
WIRE 480 -304 480 -368
WIRE -656 -288 -656 -320
WIRE -544 -288 -544 -320
WIRE 1072 -272 1072 -544
WIRE 1136 -272 1072 -272
WIRE -1376 -256 -1376 -304
WIRE 1440 -224 1440 -256
WIRE 1504 -224 1440 -224
WIRE -848 -208 -848 -240
WIRE -544 -192 -544 -224
WIRE -320 -192 -320 -272
WIRE -112 -192 -112 -256
WIRE 176 -192 176 -240
WIRE 320 -192 320 -240
WIRE 480 -192 480 -240
WIRE 1680 -192 1680 -320
WIRE 1840 -192 1680 -192
WIRE -656 -176 -656 -208
WIRE 1504 -176 1504 -224
WIRE 640 -160 640 -320
WIRE 1328 -160 1280 -160
WIRE 1680 -160 1680 -192
WIRE 1840 -160 1840 -192
WIRE 848 -144 848 -320
WIRE 1280 -144 1280 -160
WIRE -1376 -128 -1376 -176
WIRE 976 -128 976 -304
WIRE 1504 -48 1504 -112
WIRE 1680 -16 1680 -80
WIRE 1840 32 1840 -96
WIRE 1680 112 1680 48
WIRE 1840 192 1840 112
FLAG -1376 -672 0
FLAG -848 -208 0
FLAG -656 -176 0
FLAG -656 -448 D
FLAG -736 -368 G
FLAG -656 -320 S
FLAG -1376 -128 0
FLAG -544 -192 0
FLAG -1040 -560 Vin
FLAG -320 -192 0
FLAG 320 -192 0
FLAG 480 -192 0
FLAG 640 -160 0
FLAG -1040 -688 0
FLAG 848 -144 0
FLAG -912 -400 +
FLAG -544 -480 +
FLAG 416 -560 +
FLAG 448 -320 +
FLAG -1088 -784 +
FLAG -512 -320 +
FLAG 976 -128 0
FLAG 1504 -48 0
FLAG 1680 112 0
FLAG 1840 192 0
FLAG 1136 -336 0
FLAG 1280 -144 0
FLAG -112 -192 0
FLAG 176 -192 0
FLAG 1840 -192 Vout
SYMBOL ind -672 -624 R0
SYMATTR InstName RFC1
SYMATTR Value 10000µ
SYMBOL voltage -1376 -784 R0
WINDOW 0 -32 56 VBottom 2
WINDOW 3 32 56 VTop 2
WINDOW 123 0 0 Left 2
WINDOW 39 0 0 Left 2
SYMATTR InstName Vdd1
SYMATTR Value 9V
SYMBOL njf -704 -432 R0
SYMATTR InstName J1
SYMATTR Value 2N3819
SYMBOL res -640 -768 M0
SYMATTR InstName RD
SYMATTR Value 330
SYMBOL res -672 -304 R0
SYMATTR InstName RS1
SYMATTR Value 1k
SYMBOL res -864 -336 R0
SYMATTR InstName RG1
SYMATTR Value 1Meg
SYMBOL cap -928 -384 R90
WINDOW 0 0 32 VBottom 2
WINDOW 3 32 32 VTop 2
SYMATTR InstName Cc6
SYMATTR Value 1µF
SYMBOL cap -432 -480 R90
WINDOW 0 0 32 VBottom 2
WINDOW 3 32 32 VTop 2
SYMATTR InstName Cc5
SYMATTR Value 1µF
SYMBOL voltage -1376 -528 R0
WINDOW 123 0 0 Left 2
WINDOW 39 0 0 Left 2
SYMATTR InstName Vhi1
SYMATTR Value SINE(0 .0025V 1231kHz)
SYMBOL voltage -1376 -400 R0
WINDOW 123 0 0 Left 2
WINDOW 39 0 0 Left 2
SYMATTR InstName Vcar1
SYMATTR Value SINE(0 .01V 1230kHz)
SYMBOL voltage -1376 -272 R0
WINDOW 123 0 0 Left 2
WINDOW 39 0 0 Left 2
SYMATTR InstName Vlo1
SYMATTR Value SINE(0 .0025V 1229kHz)
SYMBOL cap -560 -288 R0
SYMATTR InstName Cs1
SYMATTR Value 1µF
SYMBOL npn -176 -512 R0
SYMATTR InstName Q1
SYMATTR Value 2N3904
SYMBOL res -336 -688 R0
SYMATTR InstName Rb6
SYMATTR Value 2.7k
SYMBOL res -336 -368 R0
SYMATTR InstName Rb5
SYMATTR Value 27k
SYMBOL res 304 -336 R0
SYMATTR InstName Re3
SYMATTR Value 1k
SYMBOL res 304 -736 R0
SYMATTR InstName Rc2
SYMATTR Value 1k
SYMBOL cap 464 -304 R0
SYMATTR InstName Ce1
SYMATTR Value 1µF
SYMBOL cap 512 -560 R90
WINDOW 0 0 32 VBottom 2
WINDOW 3 32 32 VTop 2
SYMATTR InstName Cc4
SYMATTR Value 1µF
SYMBOL cap -1056 -784 R0
SYMATTR InstName Cbig
SYMATTR Value 1000µF
SYMBOL res 624 -752 R0
SYMATTR InstName Rd1
SYMATTR Value 100k
SYMBOL res 624 -416 R0
SYMATTR InstName Rd2
SYMATTR Value 10k
SYMBOL diode 704 -560 M90
WINDOW 0 0 32 VBottom 2
WINDOW 3 32 32 VTop 2
SYMATTR InstName D1
SYMATTR Value 1N4148
SYMBOL cap 832 -384 R0
SYMATTR InstName Cdet
SYMATTR Value .1µf
SYMBOL res 960 -400 R0
SYMATTR InstName Rdet
SYMATTR Value 1k
SYMBOL res 1664 -176 R0
SYMATTR InstName R1
SYMATTR Value 10
SYMBOL res 1824 16 R0
SYMATTR InstName R2
SYMATTR Value 16
SYMBOL res 1840 -448 R90
WINDOW 0 0 56 VBottom 2
WINDOW 3 32 56 VTop 2
SYMATTR InstName R3
SYMBOL cap 1488 -560 M90
WINDOW 0 0 32 VBottom 2
WINDOW 3 32 32 VTop 2
SYMATTR InstName C1
SYMATTR Value 10µF
SYMBOL cap 1664 -16 R0
SYMATTR InstName C2
SYMATTR Value .05µF
SYMBOL cap 1824 -160 R0
SYMATTR InstName C3
SYMATTR Value 220µF
SYMBOL cap 1520 -112 R180
WINDOW 0 24 56 Left 2
WINDOW 3 24 8 Left 2
SYMATTR InstName C4
SYMATTR Value 10µF
SYMBOL npn 256 -512 R0
SYMATTR InstName Q2
SYMATTR Value 2N3904
SYMBOL res -128 -688 R0
SYMATTR InstName R4
SYMATTR Value 100
SYMBOL res -128 -352 R0
SYMATTR InstName R5
SYMATTR Value 50
SYMBOL res 160 -336 R0
SYMATTR InstName R6
SYMATTR Value 20k
SYMBOL res 160 -736 R0
SYMATTR InstName R7
SYMATTR Value 20k
SYMBOL cap 64 -400 R90
WINDOW 0 0 32 VBottom 2
WINDOW 3 32 32 VTop 2
SYMATTR InstName C5
SYMATTR Value 47µF
SYMBOL LM386 1376 -320 R0
SYMATTR InstName U2
TEXT 688 96 Left 2 !.tran 0 10m 10u 1m
TEXT 2008 -424 Left 2 !.lib "C:\\Users\\owner\\Desktop\\ELEC 3700\\Prelab\\Misc\\sub\\LM386-1.sub"
