Version 4
SHEET 1 1384 1076
WIRE 480 -368 400 -368
WIRE 480 -336 480 -368
WIRE 480 -224 480 -256
WIRE 400 -192 400 -368
WIRE 480 -112 480 -144
WIRE 400 -80 400 -128
WIRE 192 48 160 48
WIRE 528 48 496 48
WIRE 592 48 528 48
WIRE 656 48 592 48
WIRE 720 48 656 48
WIRE 528 64 528 48
WIRE 592 64 592 48
WIRE 656 64 656 48
WIRE 720 64 720 48
WIRE 160 80 160 48
WIRE 528 160 528 128
WIRE 592 160 592 128
WIRE 592 160 528 160
WIRE 656 160 656 128
WIRE 656 160 592 160
WIRE 592 176 592 160
WIRE 720 208 720 144
WIRE -128 256 -208 256
WIRE 0 256 -48 256
WIRE 80 256 0 256
WIRE 192 256 144 256
WIRE -208 320 -208 256
WIRE 720 320 720 288
WIRE 192 336 144 336
WIRE 144 368 144 336
WIRE -208 432 -208 400
WIRE 144 464 144 432
WIRE 320 560 320 528
WIRE 320 608 320 560
WIRE 320 736 320 688
FLAG 480 -112 0
FLAG -208 432 0
FLAG 0 256 RFIN
FLAG 144 464 0
FLAG 720 320 0
FLAG 592 176 0
FLAG 320 736 0
FLAG 320 560 IFOUT
FLAG 160 80 0
SYMBOL voltage -208 304 R0
WINDOW 123 24 124 Left 2
WINDOW 39 0 0 Left 2
SYMATTR Value2 AC 1
SYMATTR InstName V1
SYMATTR Value SINE(0 1u 7000000 0 0 0 0)
SYMBOL res -32 240 R90
WINDOW 0 0 56 VBottom 2
WINDOW 3 32 56 VTop 2
SYMATTR InstName R2
SYMATTR Value 1500
SYMBOL res 496 -240 R180
WINDOW 0 36 76 Left 2
WINDOW 3 36 40 Left 2
SYMATTR InstName R3
SYMATTR Value 1500
SYMBOL voltage 480 -240 R0
WINDOW 123 24 124 Left 2
WINDOW 39 0 0 Left 2
SYMATTR Value2 AC 1
SYMATTR InstName V2
SYMATTR Value SINE(0 2 7020000 0 0 0 0)
SYMBOL MyModels\\sa612 352 160 R90
SYMATTR InstName X1
SYMBOL cap 144 240 R90
WINDOW 0 0 32 VBottom 2
WINDOW 3 32 32 VTop 2
SYMATTR InstName C2
SYMATTR Value 100n
SYMBOL cap 128 368 R0
SYMATTR InstName C3
SYMATTR Value 100n
SYMBOL cap 384 -192 R0
SYMATTR InstName C4
SYMATTR Value 100n
SYMBOL voltage 720 192 R0
WINDOW 123 24 124 Left 2
WINDOW 39 0 0 Left 2
SYMATTR InstName V3
SYMATTR Value 8
SYMBOL ind 704 48 R0
SYMATTR InstName L1
SYMATTR Value 100µ
SYMBOL cap 512 64 R0
SYMATTR InstName C5
SYMATTR Value 1n
SYMBOL cap 576 64 R0
SYMATTR InstName C6
SYMATTR Value 100n
SYMBOL cap 640 64 R0
SYMATTR InstName C7
SYMATTR Value 10µ
SYMBOL cap 304 464 R0
SYMATTR InstName C8
SYMATTR Value 10µ
SYMBOL res 336 704 R180
WINDOW 0 36 76 Left 2
WINDOW 3 36 40 Left 2
SYMATTR InstName R1
SYMATTR Value 1500R
TEXT -216 128 Left 2 !.tran 0 500u 490u
