Version 4
SHEET 1 3976 1128
WIRE 2784 -320 2752 -320
WIRE 2832 -320 2784 -320
WIRE 2832 -288 2832 -320
WIRE 2832 -176 2832 -208
WIRE 2752 -144 2752 -320
WIRE 2832 -64 2832 -96
WIRE 2752 -32 2752 -80
WIRE 2544 96 2512 96
WIRE 2880 96 2848 96
WIRE 2944 96 2880 96
WIRE 3008 96 2944 96
WIRE 3056 96 3008 96
WIRE 3152 96 3136 96
WIRE 3312 96 3232 96
WIRE 2880 112 2880 96
WIRE 2944 112 2944 96
WIRE 3008 112 3008 96
WIRE 2512 128 2512 96
WIRE 3312 192 3312 176
WIRE 2880 208 2880 176
WIRE 2944 208 2944 176
WIRE 2944 208 2880 208
WIRE 3008 208 3008 176
WIRE 3008 208 2944 208
WIRE 2944 224 2944 208
WIRE 2336 304 2272 304
WIRE 2464 304 2400 304
WIRE 2544 304 2464 304
WIRE 2272 336 2272 304
WIRE 2544 384 2496 384
WIRE 2496 416 2496 384
WIRE 2272 448 2272 416
WIRE 3152 480 2976 480
WIRE 3280 480 3152 480
WIRE 3504 480 3280 480
WIRE 3152 496 3152 480
WIRE 2496 512 2496 480
WIRE 3280 512 3280 480
WIRE 2976 528 2976 480
WIRE 3504 528 3504 480
WIRE 2272 560 2272 528
WIRE 2672 608 2672 576
WIRE 3280 608 3280 592
WIRE 3504 640 3504 608
WIRE 3568 640 3504 640
WIRE 3664 640 3632 640
WIRE 3664 672 3664 640
WIRE 2976 688 2976 608
WIRE 2976 688 2832 688
WIRE 3040 688 2976 688
WIRE 3136 688 3104 688
WIRE 2976 720 2976 688
WIRE 3136 720 3136 688
WIRE 3600 720 3536 720
WIRE 3600 752 3600 720
WIRE 2832 784 2832 688
WIRE 3504 784 3504 640
WIRE 3536 800 3536 720
WIRE 2976 816 2976 800
WIRE 3056 816 2976 816
WIRE 3152 816 3120 816
WIRE 3200 816 3152 816
WIRE 3328 816 3280 816
WIRE 3488 816 3328 816
WIRE 2976 832 2976 816
WIRE 3600 832 3600 816
WIRE 3328 848 3328 816
WIRE 3680 864 3616 864
WIRE 3760 864 3680 864
WIRE 3856 864 3824 864
WIRE 3904 864 3856 864
WIRE 2672 880 2672 608
WIRE 2720 880 2672 880
WIRE 2832 880 2832 864
WIRE 2832 880 2784 880
WIRE 2912 880 2832 880
WIRE 2832 912 2832 880
WIRE 3488 912 3408 912
WIRE 3680 912 3680 864
WIRE 3904 912 3904 864
WIRE 3328 928 3328 912
WIRE 3408 928 3408 912
WIRE 2976 944 2976 928
WIRE 3072 944 2976 944
WIRE 3552 944 3552 912
WIRE 2976 960 2976 944
WIRE 3072 976 3072 944
WIRE 3680 992 3680 976
WIRE 2832 1008 2832 992
WIRE 3408 1008 3408 992
WIRE 3472 1008 3408 1008
WIRE 3504 1008 3504 944
WIRE 3504 1008 3472 1008
WIRE 3904 1024 3904 992
WIRE 3552 1040 3552 1008
WIRE 2976 1056 2976 1040
WIRE 3008 1056 2976 1056
WIRE 3072 1056 3072 1040
WIRE 3072 1056 3008 1056
WIRE 3472 1056 3472 1008
WIRE 3008 1072 3008 1056
WIRE 3680 1088 3680 1072
FLAG 2272 560 0
FLAG 2832 -64 0
FLAG 2496 512 0
FLAG 2512 128 0
FLAG 2672 608 IF2OUT
FLAG 3280 608 0
FLAG 2832 1008 0
FLAG 3008 1072 0
FLAG 3136 720 0
FLAG 3152 816 Vout
FLAG 3328 928 0
FLAG 3152 544 0
FLAG 3472 1056 0
FLAG 3680 1088 0
FLAG 3904 1024 0
FLAG 3856 864 Vspk
FLAG 3552 1040 0
FLAG 3664 672 0
FLAG 3312 192 0
FLAG 2944 224 0
FLAG 2464 304 IF1IN
FLAG 2784 -320 LO2IN
SYMBOL res 2288 432 R180
WINDOW 0 36 76 Left 2
WINDOW 3 36 40 Left 2
SYMATTR InstName R2
SYMATTR Value 1500R
SYMBOL voltage 2272 432 R0
WINDOW 123 -87 49 Left 2
WINDOW 39 0 0 Left 2
WINDOW 0 -67 18 Left 2
WINDOW 3 -279 89 Left 2
SYMATTR InstName V1
SYMATTR Value SINE(0 50u 4910866 0 0 0 0)
SYMBOL res 2848 -192 R180
WINDOW 0 36 76 Left 2
WINDOW 3 36 40 Left 2
SYMATTR InstName R1
SYMATTR Value 50R
SYMBOL voltage 2832 -192 R0
WINDOW 123 24 124 Left 2
WINDOW 39 0 0 Left 2
SYMATTR InstName V4
SYMATTR Value SINE(0 1.5 4908866 0 0 0 0)
SYMBOL MyModels\\sa612 2704 208 R90
SYMATTR InstName X2
SYMBOL cap 2400 288 R90
WINDOW 0 0 32 VBottom 2
WINDOW 3 32 32 VTop 2
SYMATTR InstName C25
SYMATTR Value 10n
SYMBOL cap 2480 416 R0
SYMATTR InstName C26
SYMATTR Value 100n
SYMBOL cap 2736 -144 R0
SYMATTR InstName C27
SYMATTR Value 100n
SYMBOL cap 2656 512 R0
SYMATTR InstName C31
SYMATTR Value 10µ
SYMBOL npn 2912 832 R0
SYMATTR InstName Q1
SYMATTR Value 2N3904
SYMBOL res 2816 768 R0
SYMATTR InstName R9
SYMATTR Value 100K
SYMBOL res 2816 896 R0
SYMATTR InstName R10
SYMATTR Value 10K
SYMBOL res 2960 704 R0
SYMATTR InstName R11
SYMATTR Value 1K
SYMBOL res 2960 944 R0
SYMATTR InstName R12
SYMATTR Value 470R
SYMBOL cap 3056 976 R0
SYMATTR InstName C32
SYMATTR Value 100µ
SYMBOL cap 3104 672 R90
WINDOW 0 0 32 VBottom 2
WINDOW 3 32 32 VTop 2
SYMATTR InstName C33
SYMATTR Value 100µ
SYMBOL voltage 3280 496 R0
WINDOW 123 0 0 Left 2
WINDOW 39 0 0 Left 2
SYMATTR InstName V7
SYMATTR Value 12V
SYMBOL res 2960 512 R0
SYMATTR InstName R14
SYMATTR Value 100R
SYMBOL cap 3120 800 R90
WINDOW 0 0 32 VBottom 2
WINDOW 3 32 32 VTop 2
SYMATTR InstName C35
SYMATTR Value 10µ
SYMBOL LM386 3552 864 R0
WINDOW 3 -49 -13 Left 2
WINDOW 0 -38 24 Left 2
SYMATTR InstName U1
SYMBOL cap 3312 848 R0
SYMATTR InstName C36
SYMATTR Value 10n
SYMBOL cap 3136 480 R0
SYMATTR InstName C37
SYMATTR Value 47µ
SYMBOL cap 3584 752 R0
SYMATTR InstName C38
SYMATTR Value 10µ
SYMBOL res 3296 800 R90
WINDOW 0 0 56 VBottom 2
WINDOW 3 32 56 VTop 2
SYMATTR InstName R15
SYMATTR Value 2.7K
SYMBOL cap 3664 912 R0
SYMATTR InstName C39
SYMATTR Value .01µ
SYMBOL res 3664 976 R0
SYMATTR InstName R16
SYMATTR Value 10R
SYMBOL cap 3824 848 R90
WINDOW 0 0 32 VBottom 2
WINDOW 3 32 32 VTop 2
SYMATTR InstName C40
SYMATTR Value 100µ
SYMBOL res 3888 896 R0
SYMATTR InstName R17
SYMATTR Value 8R
SYMBOL cap 3392 928 R0
SYMATTR InstName C41
SYMATTR Value .1µ
SYMBOL cap 3536 944 R0
SYMATTR InstName C42
SYMATTR Value 1µ
SYMBOL cap 3632 624 R90
WINDOW 0 0 32 VBottom 2
WINDOW 3 32 32 VTop 2
SYMATTR InstName C43
SYMATTR Value 100µ
SYMBOL res 3488 512 R0
SYMATTR InstName R18
SYMATTR Value 100R
SYMBOL voltage 3312 80 R0
WINDOW 123 24 124 Left 2
WINDOW 39 0 0 Left 2
SYMATTR InstName V6
SYMATTR Value 8
SYMBOL ind2 3136 112 R270
WINDOW 0 32 56 VTop 2
WINDOW 3 4 56 VBottom 2
SYMATTR InstName L17
SYMATTR Value 100µ
SYMATTR Type ind
SYMBOL cap 2864 112 R0
SYMATTR InstName C44
SYMATTR Value 1n
SYMBOL cap 2928 112 R0
SYMATTR InstName C45
SYMATTR Value 100n
SYMBOL cap 2992 112 R0
SYMATTR InstName C46
SYMATTR Value 10µ
SYMBOL res 3152 80 R90
WINDOW 0 0 56 VBottom 2
WINDOW 3 32 56 VTop 2
SYMATTR InstName R19
SYMATTR Value 100R
SYMBOL cap 2784 864 R90
WINDOW 0 0 32 VBottom 2
WINDOW 3 32 32 VTop 2
SYMATTR InstName C1
SYMATTR Value 10µ
TEXT 3320 672 Left 2 !.lib lm386.sub
TEXT 3416 720 Left 2 ;7 BP\n1 G1\n8 G8
TEXT 1896 -64 Left 2 !.tran 0 10m 5m
TEXT 1888 32 Left 2 !.save V(IF1IN) V(LO2IN) V(IF2OUT) V(Vspk)
TEXT 1896 -112 Left 2 ;Simulation takes a long time to run
