Version 4
SHEET 1 2072 816
WIRE -240 -176 -336 -176
WIRE -144 -176 -160 -176
WIRE -64 -176 -144 -176
WIRE 32 -176 -64 -176
WIRE 272 -176 32 -176
WIRE 400 -176 352 -176
WIRE -144 -160 -144 -176
WIRE -64 -160 -64 -176
WIRE -336 -144 -336 -176
WIRE 544 -112 320 -112
WIRE 672 -112 608 -112
WIRE 704 -112 672 -112
WIRE -144 -80 -144 -96
WIRE -64 -80 -64 -96
WIRE -64 -80 -144 -80
WIRE 320 -80 320 -112
WIRE 368 -80 320 -80
WIRE 400 -80 400 -176
WIRE -144 -64 -144 -80
WIRE 32 -64 32 -176
WIRE 704 -64 704 -112
WIRE -336 -32 -336 -64
WIRE 368 0 368 -80
WIRE 400 0 368 0
WIRE 704 64 704 16
WIRE 320 112 320 0
WIRE -192 160 -208 160
WIRE -112 160 -192 160
WIRE 32 160 32 16
WIRE 32 160 -48 160
WIRE 256 160 32 160
WIRE -208 192 -208 160
WIRE 320 240 320 208
WIRE 464 240 320 240
WIRE 464 256 464 240
WIRE -208 304 -208 272
WIRE 320 304 320 240
WIRE 32 336 32 160
WIRE 320 416 320 384
WIRE 464 416 464 320
WIRE 464 416 320 416
WIRE 320 448 320 416
WIRE -208 576 -208 384
WIRE 32 576 32 416
WIRE 32 576 -208 576
WIRE 320 576 320 528
WIRE 320 576 32 576
WIRE 320 624 320 576
FLAG -336 -32 0
FLAG 320 624 0
FLAG -192 160 Vin
FLAG -144 -64 0
FLAG 704 64 0
FLAG 672 -112 Vout
SYMBOL npn 256 112 R0
SYMATTR InstName Q1
SYMATTR Value 2N3866
SYMBOL voltage -208 288 R0
WINDOW 123 -71 137 Left 2
WINDOW 39 -107 169 Left 2
WINDOW 3 -235 104 Left 2
SYMATTR Value2 AC 1
SYMATTR Value SINE(0 10u 3500000)
SYMATTR InstName V1
SYMBOL res 16 320 R0
SYMATTR InstName R1
SYMATTR Value 1K
SYMBOL cap 480 320 R180
WINDOW 0 24 56 Left 2
WINDOW 3 24 8 Left 2
SYMATTR InstName C1
SYMATTR Value 100n
SYMBOL cap -48 144 R90
WINDOW 0 0 32 VBottom 2
WINDOW 3 32 32 VTop 2
SYMATTR InstName C3
SYMATTR Value 1n
SYMBOL res -144 -192 R90
WINDOW 0 0 56 VBottom 2
WINDOW 3 32 56 VTop 2
SYMATTR InstName R6
SYMATTR Value 10R
SYMBOL voltage -336 -160 R0
WINDOW 0 24 25 Left 2
WINDOW 123 0 0 Left 2
WINDOW 39 0 0 Left 2
SYMATTR InstName V2
SYMATTR Value 12
SYMBOL ind2 304 -96 R0
SYMATTR InstName L1
SYMATTR Value 35µ
SYMATTR Type ind
SYMBOL ind2 384 -96 R0
SYMATTR InstName L2
SYMATTR Value 35µ
SYMATTR Type ind
SYMBOL res 304 288 R0
SYMATTR InstName R8
SYMATTR Value 100R
SYMBOL res -224 176 R0
SYMATTR InstName R4
SYMATTR Value 50R
SYMBOL cap -160 -160 R0
SYMATTR InstName C4
SYMATTR Value 10µ
SYMBOL res 16 -80 R0
SYMATTR InstName R2
SYMATTR Value 2.2K
SYMBOL cap -80 -160 R0
SYMATTR InstName C5
SYMATTR Value 100n
SYMBOL res 688 -80 R0
SYMATTR InstName R9
SYMATTR Value 50R
SYMBOL cap 608 -128 R90
WINDOW 0 0 32 VBottom 2
WINDOW 3 32 32 VTop 2
SYMATTR InstName C2
SYMATTR Value 10n
SYMBOL res 368 -192 R90
WINDOW 0 0 56 VBottom 2
WINDOW 3 32 56 VTop 2
SYMATTR InstName R3
SYMATTR Value 1
SYMBOL res 304 432 R0
SYMATTR InstName R5
SYMATTR Value 1R
TEXT 336 56 Left 2 !K1 L1 L2 1
TEXT -456 112 Left 2 !.ac dec 100000 1Meg 30Meg
TEXT -440 80 Left 2 !;tran 0 100u 95u
TEXT 392 488 Left 2 ;This is a 100R POT that controls gain.
TEXT 280 -288 Left 2 ;R3 is a test to see if gain can be controlled with a POT here
TEXT -352 -344 Left 2 ;R6, C4, C5 form a PS LPF. \nCould also use a RF choke (inductor)\nProbably not a bad idea to put an extra \n100n Cap at top of L1/L2 to gound
TEXT 440 176 Left 2 ;2N2222 or 2N3904 - limited to 21-23db at 21 Mhz\n2N3866 - get 27dB at 21 Mhz
