Version 4
SHEET 1 2312 1176
WIRE 96 -400 -96 -400
WIRE 352 -400 96 -400
WIRE 832 -400 352 -400
WIRE 96 -384 96 -400
WIRE -96 -368 -96 -400
WIRE 96 -288 96 -304
WIRE -96 -272 -96 -288
WIRE 0 -176 -80 -176
WIRE 96 -176 96 -208
WIRE 96 -176 0 -176
WIRE 352 -176 352 -400
WIRE 448 -176 352 -176
WIRE 528 -176 448 -176
WIRE 704 -176 624 -176
WIRE 832 -176 832 -400
WIRE 832 -176 704 -176
WIRE -80 -160 -80 -176
WIRE 0 -160 0 -176
WIRE 448 -160 448 -176
WIRE 528 -160 528 -176
WIRE 624 -160 624 -176
WIRE 704 -160 704 -176
WIRE 96 -128 96 -176
WIRE -80 -80 -80 -96
WIRE 0 -80 0 -96
WIRE 448 -80 448 -96
WIRE 528 -80 528 -96
WIRE 624 -80 624 -96
WIRE 704 -80 704 -96
WIRE 96 -32 96 -48
WIRE 208 -32 96 -32
WIRE 896 48 736 48
WIRE 1072 48 976 48
WIRE 320 64 256 64
WIRE 496 64 400 64
WIRE 96 80 96 48
WIRE 832 96 832 -176
WIRE 352 112 352 -176
WIRE 736 112 736 48
WIRE 800 112 736 112
WIRE 256 128 256 64
WIRE 320 128 256 128
WIRE 992 128 864 128
WIRE 1072 128 1072 48
WIRE 1072 128 1056 128
WIRE 1248 128 1072 128
WIRE 1264 128 1248 128
WIRE 1392 128 1264 128
WIRE 1520 128 1392 128
WIRE 496 144 496 64
WIRE 496 144 384 144
WIRE 576 144 496 144
WIRE 800 144 656 144
WIRE -144 160 -256 160
WIRE -32 160 -32 96
WIRE -32 160 -64 160
WIRE -16 160 -32 160
WIRE 208 160 208 -32
WIRE 208 160 48 160
WIRE 320 160 208 160
WIRE 1392 160 1392 128
WIRE 1264 176 1264 128
WIRE 1520 176 1520 128
WIRE 496 192 496 144
WIRE -256 208 -256 160
WIRE 256 208 256 128
WIRE 832 208 832 160
WIRE 352 224 352 176
WIRE 496 272 496 256
WIRE 496 272 464 272
WIRE 1264 288 1264 240
WIRE 1392 288 1392 240
WIRE 1520 288 1520 240
WIRE -256 304 -256 288
WIRE 256 304 256 288
WIRE 496 304 496 272
WIRE 256 400 256 368
WIRE 496 416 496 384
FLAG -96 -272 0
FLAG -256 304 0
FLAG 1264 288 0
FLAG 1520 288 0
FLAG 1248 128 Vadc
FLAG 256 400 0
FLAG 96 80 0
FLAG -80 -80 0
FLAG 0 -80 0
FLAG 448 -80 0
FLAG 528 -80 0
FLAG 624 -80 0
FLAG 704 -80 0
FLAG 1392 288 0
FLAG 496 416 0
FLAG 464 272 Vout1
FLAG -32 96 Vin
FLAG 352 224 0
FLAG 832 208 0
SYMBOL cap 48 144 R90
WINDOW 0 0 32 VBottom 2
WINDOW 3 32 32 VTop 2
SYMATTR InstName C3
SYMATTR Value 10µ
SYMBOL voltage -256 192 R0
WINDOW 123 24 124 Left 2
WINDOW 39 0 0 Left 2
SYMATTR Value2 AC 1
SYMATTR InstName V1
SYMATTR Value SINE(0 {V} 1500 0 0 0 100)
SYMBOL voltage -96 -384 R0
WINDOW 123 0 0 Left 2
WINDOW 39 0 0 Left 2
SYMATTR InstName V2
SYMATTR Value 12V
SYMBOL schottky 992 144 R270
WINDOW 0 32 32 VTop 2
WINDOW 3 -2 30 VBottom 2
SYMATTR InstName D1
SYMATTR Value 1N5711
SYMATTR Description Diode
SYMATTR Type diode
SYMBOL cap 1248 176 R0
SYMATTR InstName C14
SYMATTR Value 1µ
SYMBOL cap 1504 176 R0
SYMATTR InstName CADC
SYMATTR Value 14p
SYMBOL OpAmps\\opamp2 352 80 R0
WINDOW 0 31 42 Left 2
SYMATTR InstName U3
SYMATTR Value LM358
SYMBOL res 416 48 R90
WINDOW 0 0 56 VBottom 2
WINDOW 3 32 56 VTop 2
SYMATTR InstName R1
SYMATTR Value 33K
SYMBOL res 272 304 R180
WINDOW 0 36 76 Left 2
WINDOW 3 36 40 Left 2
SYMATTR InstName R2
SYMATTR Value 100
SYMBOL res 80 -48 R0
SYMATTR InstName R3
SYMATTR Value 10K
SYMBOL res 80 -144 R0
SYMATTR InstName R4
SYMATTR Value 47K
SYMBOL OpAmps\\opamp2 832 64 R0
SYMATTR InstName U1
SYMATTR Value LM358
SYMBOL res 992 32 R90
WINDOW 0 0 56 VBottom 2
WINDOW 3 32 56 VTop 2
SYMATTR InstName R7
SYMATTR Value 10K
SYMBOL ind 80 -400 R0
SYMATTR InstName L3
SYMATTR Value 20µ
SYMBOL res 80 -304 R0
SYMATTR InstName R10
SYMATTR Value 1K
SYMBOL cap -16 -160 R0
SYMATTR InstName C2
SYMATTR Value .1µ
SYMBOL cap -96 -160 R0
SYMATTR InstName C7
SYMATTR Value 470µ
SYMBOL cap 512 -160 R0
SYMATTR InstName C9
SYMATTR Value .1µ
SYMBOL cap 432 -160 R0
SYMATTR InstName C10
SYMATTR Value 100µ
SYMBOL cap 688 -160 R0
SYMATTR InstName C11
SYMATTR Value .1µ
SYMBOL cap 608 -160 R0
SYMATTR InstName C12
SYMATTR Value 100µ
SYMBOL res -48 144 R90
WINDOW 0 0 56 VBottom 2
WINDOW 3 32 56 VTop 2
SYMATTR InstName R13
SYMATTR Value 1500
SYMBOL res 1376 144 R0
SYMATTR InstName R9
SYMATTR Value 500K
SYMBOL cap 480 192 R0
SYMATTR InstName C5
SYMATTR Value 10µ
SYMBOL res 480 288 R0
SYMATTR InstName R12
SYMATTR Value 1Meg
SYMBOL res 672 128 R90
WINDOW 0 0 56 VBottom 2
WINDOW 3 32 56 VTop 2
SYMATTR InstName R5
SYMATTR Value 47K
SYMBOL polcap 240 304 R0
WINDOW 3 24 56 Left 2
SYMATTR Value 10µ
SYMATTR InstName C1
SYMATTR Description Capacitor
SYMATTR Type cap
SYMATTR SpiceLine V=16 Irms=35m Rser=1.95183 Lser=4.15924n mfg="Würth Elektronik" pn="860020372001 WCAP-ATG5 5x11" type="Al electrolytic"
TEXT -512 -144 Left 2 !.tran 1
TEXT -512 -104 Left 2 !.inc LM358.sub\n.inc NE5532.lib
TEXT -808 8 Left 2 ;measured Vpp Output from 1 NE5532 terminated to LM380\n1.9mv  -100dBm (LTspice Input: 28u)\n39.6mV  -70dBm (LTspice Input: 600u)\n214mV  --50dBm (LTspice Input: 3.2m)
TEXT 1040 -504 Left 2 ;.meas TRAN Vinrms RMS V(Vin)\n.meas TRAN Vinavr AVG V(Vin)\n.meas TRAN Vinmax MAX V(Vin)\n.meas TRAN Vinmin MIN V(Vin)\n.meas TRAN Vinpp PARAM Vinmax -Vinmin \n;;;;;;;;;;;;;;;;;;;;;;;;;;;;;;;\n.meas TRAN Vout1rms RMS V(Vout1)\n.meas TRAN Vout1avr AVG V(Vout1)\n.meas TRAN Vout1max MAX V(Vout1)\n.meas TRAN Vout1min MIN V(Vout1)\n.meas TRAN Vout1pp PARAM Vout1max -Vout1min \n;;;;;;;;;;;;;;;;;;;;;;;;;;;;;;;\n.meas TRAN Vout2rms RMS V(Vout2)\n.meas TRAN Vout2avr AVG V(Vout2)\n.meas TRAN Vout2max MAX V(Vout2)\n.meas TRAN Vout2min MIN V(Vout2)\n.meas TRAN Vout2pp PARAM Vout2max -Vout2min
TEXT -504 -208 Left 2 !.step param V 100u 3000u 500u
TEXT -504 -264 Left 2 ;.option noopiter
TEXT 1720 -408 Left 2 !.meas TRAN Vadcrms RMS V(Vadc)\n.meas TRAN Vadcavr AVG V(Vadc)\n.meas TRAN Vadcmax MAX V(Vadc)\n.meas TRAN Vadcmin MIN V(Vadc)\n.meas TRAN Vadcpp PARAM Vadcmax -Vadcmin\n;;;;;;;;;;;;;;;;;;;;\n.meas TRAN Vout1rms RMS V(Vout1)\n.meas TRAN Vout1avr AVG V(Vout1)\n.meas TRAN Vout1max MAX V(Vout1)\n.meas TRAN Vout1min MIN V(Vout1)\n.meas TRAN Vout1pp PARAM Vout1max -Vout1min
