Version 4
SHEET 1 2388 1176
WIRE 448 -176 240 -176
WIRE 528 -176 448 -176
WIRE 1008 -176 528 -176
WIRE 448 -160 448 -176
WIRE 528 -160 528 -176
WIRE 240 -144 240 -176
WIRE 448 -80 448 -96
WIRE 528 -80 528 -96
WIRE 240 -48 240 -64
WIRE 1040 32 944 32
WIRE 1216 32 1104 32
WIRE 1008 96 1008 -176
WIRE 2208 96 2144 96
WIRE 2384 96 2288 96
WIRE 832 112 784 112
WIRE 944 112 944 32
WIRE 944 112 912 112
WIRE 976 112 944 112
WIRE 1216 128 1216 32
WIRE 1216 128 1040 128
WIRE 1264 128 1216 128
WIRE 1424 128 1344 128
WIRE 1440 128 1424 128
WIRE 1568 128 1440 128
WIRE 1696 128 1568 128
WIRE 48 144 48 80
WIRE 48 144 -176 144
WIRE 784 144 784 112
WIRE 784 144 48 144
WIRE 976 144 944 144
WIRE 1568 160 1568 128
WIRE 2144 160 2144 96
WIRE 2208 160 2144 160
WIRE 944 176 944 144
WIRE 1440 176 1440 128
WIRE 1696 176 1696 128
WIRE 2384 176 2384 96
WIRE 2384 176 2272 176
WIRE -176 192 -176 144
WIRE 2144 240 2144 160
WIRE -176 288 -176 272
WIRE 1440 288 1440 240
WIRE 1568 288 1568 240
WIRE 1696 288 1696 240
WIRE 2144 336 2144 320
WIRE 272 384 144 384
WIRE 352 384 272 384
WIRE 1008 384 1008 160
WIRE 1008 384 352 384
WIRE 272 400 272 384
WIRE 352 400 352 384
WIRE 144 416 144 384
WIRE 272 480 272 464
WIRE 352 480 352 464
WIRE 144 512 144 496
FLAG 240 -48 0
FLAG -176 288 0
FLAG 448 -80 0
FLAG 528 -80 0
FLAG 48 80 Vin
FLAG 144 512 0
FLAG 272 480 0
FLAG 352 480 0
FLAG 1440 288 0
FLAG 1696 288 0
FLAG 1424 128 Vout1
FLAG 1568 288 0
FLAG 2144 336 0
FLAG 944 176 0
SYMBOL voltage -176 176 R0
WINDOW 123 24 124 Left 2
WINDOW 39 0 0 Left 2
SYMATTR Value2 AC 1
SYMATTR InstName V1
SYMATTR Value SINE(0 {V} 1500 0 0 0 50)
SYMBOL voltage 240 -160 R0
WINDOW 123 0 0 Left 2
WINDOW 39 0 0 Left 2
SYMATTR InstName V2
SYMATTR Value 12
SYMBOL cap 512 -160 R0
SYMATTR InstName C9
SYMATTR Value .1µ
SYMBOL cap 432 -160 R0
SYMATTR InstName C10
SYMATTR Value 100µ
SYMBOL voltage 144 400 R0
WINDOW 123 0 0 Left 2
WINDOW 39 0 0 Left 2
SYMATTR InstName V3
SYMATTR Value -12
SYMBOL cap 336 400 R0
SYMATTR InstName C2
SYMATTR Value .1µ
SYMBOL cap 256 400 R0
SYMATTR InstName C4
SYMATTR Value 100µ
SYMBOL diode 1040 48 R270
WINDOW 0 32 32 VTop 2
WINDOW 3 -2 30 VBottom 2
SYMATTR InstName D1
SYMATTR Value 1N914
SYMBOL cap 1424 176 R0
SYMATTR InstName C5
SYMATTR Value .22µ
SYMBOL cap 1680 176 R0
SYMATTR InstName CADC1
SYMATTR Value 14p
SYMBOL res 1552 144 R0
SYMATTR InstName R6
SYMATTR Value 100K
SYMBOL res 816 128 R270
WINDOW 0 32 56 VTop 2
WINDOW 3 0 56 VBottom 2
SYMATTR InstName R5
SYMATTR Value 50Meg
SYMBOL OpAmps\\TL072 1008 64 R0
SYMATTR InstName U2
SYMBOL res 2304 80 R90
WINDOW 0 0 56 VBottom 2
WINDOW 3 32 56 VTop 2
SYMATTR InstName R7
SYMATTR Value 100K
SYMBOL res 2160 336 R180
WINDOW 0 36 76 Left 2
WINDOW 3 36 40 Left 2
SYMATTR InstName R8
SYMATTR Value 100K
SYMBOL OpAmps\\TL072 2240 112 R0
SYMATTR InstName U3
SYMBOL res 1360 112 R90
WINDOW 0 0 56 VBottom 2
WINDOW 3 32 56 VTop 2
SYMATTR InstName R1
SYMATTR Value 510
TEXT -760 -208 Left 2 !.tran 100m
TEXT -768 -160 Left 2 !.inc LM358.sub\n.inc NE5532.lib
TEXT -968 232 Left 2 ;measured Vpp Output from 1 NE5532 terminated to LM380\n1.9mv  -100dBm (LTspice Input: 28u)\n39.6mV  -70dBm (LTspice Input: 600u)\n214mV  --50dBm (LTspice Input: 3.2m)
TEXT 1000 -688 Left 2 ;.meas TRAN Vinrms RMS V(Vin)\n.meas TRAN Vinavr AVG V(Vin)\n.meas TRAN Vinmax MAX V(Vin)\n.meas TRAN Vinmin MIN V(Vin)\n.meas TRAN Vinpp PARAM Vinmax -Vinmin \n;;;;;;;;;;;;;;;;;;;;;;;;;;;;;;;\n.meas TRAN Vout1rms RMS V(Vout1)\n.meas TRAN Vout1avr AVG V(Vout1)\n.meas TRAN Vout1max MAX V(Vout1)\n.meas TRAN Vout1min MIN V(Vout1)\n.meas TRAN Vout1pp PARAM Vout1max -Vout1min \n;;;;;;;;;;;;;;;;;;;;;;;;;;;;;;;\n.meas TRAN Vout2rms RMS V(Vout2)\n.meas TRAN Vout2avr AVG V(Vout2)\n.meas TRAN Vout2max MAX V(Vout2)\n.meas TRAN Vout2min MIN V(Vout2)\n.meas TRAN Vout2pp PARAM Vout2max -Vout2min
TEXT -504 -208 Left 2 !; Output from NE5532\n.step param V list 6.4m 18m 86m 226m 2.12 3.83\n \n; Raw output\n;.step param V list 28u 600u 3.2m\n \n; Raw output with Gain 10\n;.step param V list 280u 6m 32m\n \n \n.param R 170\n \n;.param V 100u
TEXT -504 -264 Left 2 ;.option noopiter
TEXT 1720 -408 Left 2 !.meas TRAN Vinrms RMS V(Vin)\n.meas TRAN Vinavr AVG V(Vin)\n.meas TRAN Vinmax MAX V(Vin)\n.meas TRAN Vinmin MIN V(Vin)\n.meas TRAN Vinpp PARAM Vinmax-Vinmin \n;;;;;;;;;;;;;;;;;;;;\n.meas TRAN Vout1rms RMS V(Vout1)\n.meas TRAN Vout1avr AVG V(Vout1)\n.meas TRAN Vout1max MAX V(Vout1)\n.meas TRAN Vout1min MIN V(Vout1)\n.meas TRAN Vout1pp PARAM Vout1max-Vout1min\n;;;;;;;;;;;;;;;;;\n.meas TRAN Gvx PARAM Vout1rms/Vinrms \n.meas TRAN Gv PARAM 20*log(Gvx)
